test/data/case118_scopf.m
%%%%%%%%%%%%%%%%%%%%%%%%%%%%%%%%%%%%%%%%%%%%%%%%%%%%%%%%%%%%%%%%%%%%%%%%%%%
%%%%                                                                  %%%%%
%%%%      NICTA Energy System Test Case Archive (NESTA) - v0.6.1      %%%%%
%%%%              Optimal Power Flow - Typical Operation              %%%%%
%%%%                       26 - November - 2016                       %%%%%
%%%%                                                                  %%%%%
%%%%%%%%%%%%%%%%%%%%%%%%%%%%%%%%%%%%%%%%%%%%%%%%%%%%%%%%%%%%%%%%%%%%%%%%%%%
%
%   Power flow data for IEEE 118 bus test case.
%   Please see CASEFORMAT for details on the case file format.
%   (ieee118cdf.txt) on 20-Sep-2004 by cdf2matp, rev. 1.11
%
%   Converted from IEEE CDF file from:
%       http://www.ee.washington.edu/research/pstca/
%   
%   With base_kV data take from the PSAP format file from the same site,
%   added manually on 10-Mar-2006.
%
%   CDF Header:
%   08/25/93 UW ARCHIVE           100.0  1961 W IEEE 118 Bus Test Case
%
function mpc = case118_scopf
mpc.version = '2';
mpc.baseMVA = 100.0;

%% bus data
%	bus_i	type	Pd	Qd	Gs	Bs	area	Vm	Va	baseKV	zone	Vmax	Vmin
mpc.bus = [
	1	 2	 51.0	 27.0	 0.0	 0.0	 1	    1.03313	  -32.79829	 138.0	 1	    1.06000	    0.94000;
	2	 1	 20.0	 9.0	 0.0	 0.0	 1	    1.04476	  -31.43391	 138.0	 1	    1.06000	    0.94000;
	3	 1	 39.0	 10.0	 0.0	 0.0	 1	    1.03885	  -32.29547	 138.0	 1	    1.06000	    0.94000;
	4	 2	 39.0	 12.0	 0.0	 0.0	 1	    1.05719	  -30.64013	 138.0	 1	    1.06000	    0.94000;
	5	 1	 0.0	 0.0	 0.0	 -40.0	 1	    1.05562	  -30.42957	 138.0	 1	    1.06000	    0.94000;
	6	 2	 52.0	 22.0	 0.0	 0.0	 1	    1.05524	  -31.14479	 138.0	 1	    1.06000	    0.94000;
	7	 1	 19.0	 2.0	 0.0	 0.0	 1	    1.05615	  -30.84911	 138.0	 1	    1.06000	    0.94000;
	8	 2	 28.0	 0.0	 0.0	 0.0	 1	    1.04474	  -28.85812	 345.0	 1	    1.06000	    0.94000;
	9	 1	 0.0	 0.0	 0.0	 0.0	 1	    1.06000	  -28.92750	 345.0	 1	    1.06000	    0.94000;
	10	 2	 0.0	 0.0	 0.0	 0.0	 1	    1.03529	  -28.82050	 345.0	 1	    1.06000	    0.94000;
	11	 1	 70.0	 23.0	 0.0	 0.0	 1	    1.05162	  -30.76612	 138.0	 1	    1.06000	    0.94000;
	12	 2	 47.0	 10.0	 0.0	 0.0	 1	    1.05999	  -30.04186	 138.0	 1	    1.06000	    0.94000;
	13	 1	 34.0	 16.0	 0.0	 0.0	 1	    1.03910	  -31.57015	 138.0	 1	    1.06000	    0.94000;
	14	 1	 14.0	 1.0	 0.0	 0.0	 1	    1.05645	  -30.51913	 138.0	 1	    1.06000	    0.94000;
	15	 2	 90.0	 30.0	 0.0	 0.0	 1	    1.04944	  -30.35121	 138.0	 1	    1.06000	    0.94000;
	16	 1	 25.0	 10.0	 0.0	 0.0	 1	    1.05302	  -30.17322	 138.0	 1	    1.06000	    0.94000;
	17	 1	 11.0	 3.0	 0.0	 0.0	 1	    1.06000	  -28.29202	 138.0	 1	    1.06000	    0.94000;
	18	 2	 60.0	 34.0	 0.0	 0.0	 1	    1.05264	  -30.09584	 138.0	 1	    1.06000	    0.94000;
	19	 2	 45.0	 25.0	 0.0	 0.0	 1	    1.04789	  -30.27721	 138.0	 1	    1.06000	    0.94000;
	20	 1	 18.0	 3.0	 0.0	 0.0	 1	    1.03471	  -28.79835	 138.0	 1	    1.06000	    0.94000;
	21	 1	 14.0	 8.0	 0.0	 0.0	 1	    1.02936	  -26.88590	 138.0	 1	    1.06000	    0.94000;
	22	 1	 10.0	 5.0	 0.0	 0.0	 1	    1.03326	  -24.02807	 138.0	 1	    1.06000	    0.94000;
	23	 1	 7.0	 3.0	 0.0	 0.0	 1	    1.05205	  -18.62826	 138.0	 1	    1.06000	    0.94000;
	24	 2	 13.0	 0.0	 0.0	 0.0	 1	    1.05682	  -17.50102	 138.0	 1	    1.06000	    0.94000;
	25	 2	 0.0	 0.0	 0.0	 0.0	 1	    1.06000	  -12.69922	 138.0	 1	    1.06000	    0.94000;
	26	 2	 0.0	 0.0	 0.0	 0.0	 1	    1.02524	  -12.31737	 345.0	 1	    1.06000	    0.94000;
	27	 2	 71.0	 13.0	 0.0	 0.0	 1	    1.04142	  -25.04041	 138.0	 1	    1.06000	    0.94000;
	28	 1	 17.0	 7.0	 0.0	 0.0	 1	    1.03325	  -26.56574	 138.0	 1	    1.06000	    0.94000;
	29	 1	 24.0	 4.0	 0.0	 0.0	 1	    1.03199	  -27.45759	 138.0	 1	    1.06000	    0.94000;
	30	 1	 0.0	 0.0	 0.0	 0.0	 1	    1.02883	  -24.89177	 345.0	 1	    1.06000	    0.94000;
	31	 2	 43.0	 27.0	 0.0	 0.0	 1	    1.03444	  -27.36116	 138.0	 1	    1.06000	    0.94000;
	32	 2	 59.0	 23.0	 0.0	 0.0	 1	    1.04234	  -25.60297	 138.0	 1	    1.06000	    0.94000;
	33	 1	 23.0	 9.0	 0.0	 0.0	 1	    1.04644	  -29.73962	 138.0	 1	    1.06000	    0.94000;
	34	 2	 59.0	 26.0	 0.0	 14.0	 1	    1.05777	  -27.93122	 138.0	 1	    1.06000	    0.94000;
	35	 1	 33.0	 9.0	 0.0	 0.0	 1	    1.05520	  -28.33563	 138.0	 1	    1.06000	    0.94000;
	36	 2	 31.0	 17.0	 0.0	 0.0	 1	    1.05573	  -28.34858	 138.0	 1	    1.06000	    0.94000;
	37	 1	 0.0	 0.0	 0.0	 -25.0	 1	    1.06000	  -27.47810	 138.0	 1	    1.06000	    0.94000;
	38	 1	 0.0	 0.0	 0.0	 0.0	 1	    1.00989	  -23.11262	 345.0	 1	    1.06000	    0.94000;
	39	 1	 27.0	 11.0	 0.0	 0.0	 1	    1.03411	  -29.53573	 138.0	 1	    1.06000	    0.94000;
	40	 2	 66.0	 23.0	 0.0	 0.0	 1	    1.02963	  -29.95140	 138.0	 1	    1.06000	    0.94000;
	41	 1	 37.0	 10.0	 0.0	 0.0	 1	    1.01757	  -29.83569	 138.0	 1	    1.06000	    0.94000;
	42	 2	 96.0	 23.0	 0.0	 0.0	 1	    1.01043	  -26.88647	 138.0	 1	    1.06000	    0.94000;
	43	 1	 18.0	 7.0	 0.0	 0.0	 1	    1.02843	  -26.31390	 138.0	 1	    1.06000	    0.94000;
	44	 1	 16.0	 8.0	 0.0	 10.0	 1	    1.00429	  -21.41768	 138.0	 1	    1.06000	    0.94000;
	45	 1	 53.0	 22.0	 0.0	 10.0	 1	    0.99592	  -18.65546	 138.0	 1	    1.06000	    0.94000;
	46	 2	 28.0	 10.0	 0.0	 10.0	 1	    1.01212	  -15.50406	 138.0	 1	    1.06000	    0.94000;
	47	 1	 34.0	 0.0	 0.0	 0.0	 1	    1.01972	  -11.98215	 138.0	 1	    1.06000	    0.94000;
	48	 1	 20.0	 11.0	 0.0	 15.0	 1	    1.02043	  -13.08165	 138.0	 1	    1.06000	    0.94000;
	49	 2	 87.0	 30.0	 0.0	 0.0	 1	    1.02323	  -11.80917	 138.0	 1	    1.06000	    0.94000;
	50	 1	 17.0	 4.0	 0.0	 0.0	 1	    1.01133	  -15.01813	 138.0	 1	    1.06000	    0.94000;
	51	 1	 17.0	 8.0	 0.0	 0.0	 1	    0.99379	  -19.02717	 138.0	 1	    1.06000	    0.94000;
	52	 1	 18.0	 5.0	 0.0	 0.0	 1	    0.98829	  -20.33167	 138.0	 1	    1.06000	    0.94000;
	53	 1	 23.0	 11.0	 0.0	 0.0	 1	    0.99145	  -22.26595	 138.0	 1	    1.06000	    0.94000;
	54	 2	 113.0	 32.0	 0.0	 0.0	 1	    1.01028	  -22.16971	 138.0	 1	    1.06000	    0.94000;
	55	 2	 63.0	 22.0	 0.0	 0.0	 1	    1.01049	  -22.53067	 138.0	 1	    1.06000	    0.94000;
	56	 2	 84.0	 18.0	 0.0	 0.0	 1	    1.00978	  -22.23337	 138.0	 1	    1.06000	    0.94000;
	57	 1	 12.0	 3.0	 0.0	 0.0	 1	    1.00607	  -19.58747	 138.0	 1	    1.06000	    0.94000;
	58	 1	 12.0	 3.0	 0.0	 0.0	 1	    0.99809	  -20.68386	 138.0	 1	    1.06000	    0.94000;
	59	 2	 277.0	 113.0	 0.0	 0.0	 1	    1.04823	  -20.01733	 138.0	 1	    1.06000	    0.94000;
	60	 1	 78.0	 3.0	 0.0	 0.0	 1	    1.05498	  -15.19733	 138.0	 1	    1.06000	    0.94000;
	61	 2	 0.0	 0.0	 0.0	 0.0	 1	    1.06000	  -14.58431	 138.0	 1	    1.06000	    0.94000;
	62	 2	 77.0	 14.0	 0.0	 0.0	 1	    1.04635	  -13.62156	 138.0	 1	    1.06000	    0.94000;
	63	 1	 0.0	 0.0	 0.0	 0.0	 1	    1.01792	  -15.38992	 345.0	 1	    1.06000	    0.94000;
	64	 1	 0.0	 0.0	 0.0	 0.0	 1	    1.02901	  -12.87730	 345.0	 1	    1.06000	    0.94000;
	65	 2	 0.0	 0.0	 0.0	 0.0	 1	    1.02987	   -6.98042	 345.0	 1	    1.06000	    0.94000;
	66	 2	 39.0	 18.0	 0.0	 0.0	 1	    1.06000	   -2.98216	 138.0	 1	    1.06000	    0.94000;
	67	 1	 28.0	 7.0	 0.0	 0.0	 1	    1.04383	   -8.66117	 138.0	 1	    1.06000	    0.94000;
	68	 1	 0.0	 0.0	 0.0	 0.0	 1	    1.02062	   -5.69946	 345.0	 1	    1.06000	    0.94000;
	69	 3	 0.0	 0.0	 0.0	 0.0	 1	    1.06000	    0.00000	 138.0	 1	    1.06000	    0.94000;
	70	 2	 66.0	 20.0	 0.0	 0.0	 1	    1.03170	  -10.14942	 138.0	 1	    1.06000	    0.94000;
	71	 1	 0.0	 0.0	 0.0	 0.0	 1	    1.03547	  -11.05503	 138.0	 1	    1.06000	    0.94000;
	72	 2	 12.0	 0.0	 0.0	 0.0	 1	    1.04425	  -14.80433	 138.0	 1	    1.06000	    0.94000;
	73	 2	 6.0	 0.0	 0.0	 0.0	 1	    1.03745	  -11.22651	 138.0	 1	    1.06000	    0.94000;
	74	 2	 68.0	 27.0	 0.0	 12.0	 1	    1.01048	  -10.62644	 138.0	 1	    1.06000	    0.94000;
	75	 1	 47.0	 11.0	 0.0	 0.0	 1	    1.01395	   -9.25550	 138.0	 1	    1.06000	    0.94000;
	76	 2	 68.0	 36.0	 0.0	 0.0	 1	    0.99960	  -10.91934	 138.0	 1	    1.06000	    0.94000;
	77	 2	 61.0	 28.0	 0.0	 0.0	 1	    1.04410	   -6.87285	 138.0	 1	    1.06000	    0.94000;
	78	 1	 71.0	 26.0	 0.0	 0.0	 1	    1.03970	   -7.20945	 138.0	 1	    1.06000	    0.94000;
	79	 1	 39.0	 32.0	 0.0	 20.0	 1	    1.04174	   -7.04886	 138.0	 1	    1.06000	    0.94000;
	80	 2	 130.0	 26.0	 0.0	 0.0	 1	    1.06000	   -5.24129	 138.0	 1	    1.06000	    0.94000;
	81	 1	 0.0	 0.0	 0.0	 0.0	 1	    1.01451	   -5.50728	 345.0	 1	    1.06000	    0.94000;
	82	 1	 54.0	 27.0	 0.0	 20.0	 1	    1.03483	   -7.93386	 138.0	 1	    1.06000	    0.94000;
	83	 1	 20.0	 10.0	 0.0	 10.0	 1	    1.03737	   -7.34853	 138.0	 1	    1.06000	    0.94000;
	84	 1	 11.0	 7.0	 0.0	 0.0	 1	    1.04085	   -5.87420	 138.0	 1	    1.06000	    0.94000;
	85	 2	 24.0	 15.0	 0.0	 0.0	 1	    1.04907	   -4.87492	 138.0	 1	    1.06000	    0.94000;
	86	 1	 21.0	 10.0	 0.0	 0.0	 1	    1.04208	   -6.23523	 138.0	 1	    1.06000	    0.94000;
	87	 2	 0.0	 0.0	 0.0	 0.0	 1	    1.05481	   -6.33068	 161.0	 1	    1.06000	    0.94000;
	88	 1	 48.0	 10.0	 0.0	 0.0	 1	    1.04735	   -2.48518	 138.0	 1	    1.06000	    0.94000;
	89	 2	 0.0	 0.0	 0.0	 0.0	 1	    1.06000	    0.87743	 138.0	 1	    1.06000	    0.94000;
	90	 2	 163.0	 42.0	 0.0	 0.0	 1	    1.05126	   -4.87373	 138.0	 1	    1.06000	    0.94000;
	91	 2	 10.0	 0.0	 0.0	 0.0	 1	    1.04436	   -4.73340	 138.0	 1	    1.06000	    0.94000;
	92	 2	 65.0	 10.0	 0.0	 0.0	 1	    1.04495	   -3.97188	 138.0	 1	    1.06000	    0.94000;
	93	 1	 12.0	 7.0	 0.0	 0.0	 1	    1.03499	   -6.20851	 138.0	 1	    1.06000	    0.94000;
	94	 1	 30.0	 16.0	 0.0	 0.0	 1	    1.03344	   -7.74757	 138.0	 1	    1.06000	    0.94000;
	95	 1	 42.0	 31.0	 0.0	 0.0	 1	    1.02300	   -8.24044	 138.0	 1	    1.06000	    0.94000;
	96	 1	 38.0	 15.0	 0.0	 0.0	 1	    1.03266	   -7.88686	 138.0	 1	    1.06000	    0.94000;
	97	 1	 15.0	 9.0	 0.0	 0.0	 1	    1.04162	   -6.91133	 138.0	 1	    1.06000	    0.94000;
	98	 1	 34.0	 8.0	 0.0	 0.0	 1	    1.04955	   -7.70927	 138.0	 1	    1.06000	    0.94000;
	99	 2	 42.0	 0.0	 0.0	 0.0	 1	    1.05160	   -9.04319	 138.0	 1	    1.06000	    0.94000;
	100	 2	 37.0	 18.0	 0.0	 0.0	 1	    1.05328	   -8.74860	 138.0	 1	    1.06000	    0.94000;
	101	 1	 22.0	 15.0	 0.0	 0.0	 1	    1.03690	   -7.50844	 138.0	 1	    1.06000	    0.94000;
	102	 1	 5.0	 3.0	 0.0	 0.0	 1	    1.04121	   -5.23894	 138.0	 1	    1.06000	    0.94000;
	103	 2	 23.0	 16.0	 0.0	 0.0	 1	    1.05037	  -11.59117	 138.0	 1	    1.06000	    0.94000;
	104	 2	 38.0	 25.0	 0.0	 0.0	 1	    1.03709	  -14.87455	 138.0	 1	    1.06000	    0.94000;
	105	 2	 31.0	 26.0	 0.0	 20.0	 1	    1.03457	  -16.04051	 138.0	 1	    1.06000	    0.94000;
	106	 1	 43.0	 16.0	 0.0	 0.0	 1	    1.02649	  -16.17588	 138.0	 1	    1.06000	    0.94000;
	107	 2	 50.0	 12.0	 0.0	 6.0	 1	    1.02208	  -18.68691	 138.0	 1	    1.06000	    0.94000;
	108	 1	 2.0	 1.0	 0.0	 0.0	 1	    1.02796	  -17.58242	 138.0	 1	    1.06000	    0.94000;
	109	 1	 8.0	 3.0	 0.0	 0.0	 1	    1.02564	  -18.18553	 138.0	 1	    1.06000	    0.94000;
	110	 2	 39.0	 30.0	 0.0	 6.0	 1	    1.02320	  -19.47936	 138.0	 1	    1.06000	    0.94000;
	111	 2	 0.0	 0.0	 0.0	 0.0	 1	    1.02631	  -19.53009	 138.0	 1	    1.06000	    0.94000;
	112	 2	 68.0	 13.0	 0.0	 0.0	 1	    1.00975	  -21.98346	 138.0	 1	    1.06000	    0.94000;
	113	 2	 6.0	 0.0	 0.0	 0.0	 1	    1.05698	  -28.02777	 138.0	 1	    1.06000	    0.94000;
	114	 1	 8.0	 3.0	 0.0	 0.0	 1	    1.03742	  -25.85113	 138.0	 1	    1.06000	    0.94000;
	115	 1	 22.0	 7.0	 0.0	 0.0	 1	    1.03697	  -25.85161	 138.0	 1	    1.06000	    0.94000;
	116	 2	 184.0	 0.0	 0.0	 0.0	 1	    1.01953	   -6.10767	 138.0	 1	    1.06000	    0.94000;
	117	 1	 20.0	 8.0	 0.0	 0.0	 1	    1.04531	  -31.38704	 138.0	 1	    1.06000	    0.94000;
	118	 1	 33.0	 15.0	 0.0	 0.0	 1	    1.00105	  -10.44914	 138.0	 1	    1.06000	    0.94000;
];
%% load data
%column_names%	load_bus	pref	qref status	qmax	qmin pmax	pmin prated qrated voll
% mpc.load = [
%     1	51	27	1	27	0	51	0	51	27	5000;
%     2	20	9	1	9	0	20	0	20	9	5000;
%     3	39	10	1	10	0	39	0	39	10	5000;
%     4	39	12	1	12	0	39	0	39	12	5000;
%     5	0	0	1	0	0	0	0	0	0	5000;
%     6	52	22	1	22	0	52	0	52	22	5000;
%     7	19	2	1	2	0	19	0	19	2	5000;
%     8	28	0	1	0	0	28	0	28	0	5000;
%     9	0	0	1	0	0	0	0	0	0	5000;
%     10	0	0	1	0	0	0	0	0	0	5000;
%     11	70	23	1	23	0	70	0	70	23	5000;
%     12	47	10	1	10	0	47	0	47	10	5000;
%     13	34	16	1	16	0	34	0	34	16	5000;
%     14	14	1	1	1	0	14	0	14	1	5000;
%     15	90	30	1	30	0	90	0	90	30	5000;
%     16	25	10	1	10	0	25	0	25	10	5000;
%     17	11	3	1	3	0	11	0	11	3	5000;
%     18	60	34	1	34	0	60	0	60	34	5000;
%     19	45	25	1	25	0	45	0	45	25	5000;
%     20	18	3	1	3	0	18	0	18	3	5000;
%     21	14	8	1	8	0	14	0	14	8	5000;
%     22	10	5	1	5	0	10	0	10	5	5000;
%     23	7	3	1	3	0	7	0	7	3	5000;
%     24	13	0	1	0	0	13	0	13	0	5000;
%     25	0	0	1	0	0	0	0	0	0	5000;
%     26	0	0	1	0	0	0	0	0	0	5000;
%     27	71	13	1	13	0	71	0	71	13	5000;
%     28	17	7	1	7	0	17	0	17	7	5000;
%     29	24	4	1	4	0	24	0	24	4	5000;
%     30	0	0	1	0	0	0	0	0	0	5000;
%     31	43	27	1	27	0	43	0	43	27	5000;
%     32	59	23	1	23	0	59	0	59	23	5000;
%     33	23	9	1	9	0	23	0	23	9	5000;
%     34	59	26	1	26	0	59	0	59	26	5000;
%     35	33	9	1	9	0	33	0	33	9	5000;
%     36	31	17	1	17	0	31	0	31	17	5000;
%     37	0	0	1	0	0	0	0	0	0	5000;
%     38	0	0	1	0	0	0	0	0	0	5000;
%     39	27	11	1	11	0	27	0	27	11	5000;
%     40	66	23	1	23	0	66	0	66	23	5000;
%     41	37	10	1	10	0	37	0	37	10	5000;
%     42	96	23	1	23	0	96	0	96	23	5000;
%     43	18	7	1	7	0	18	0	18	7	5000;
%     44	16	8	1	8	0	16	0	16	8	5000;
%     45	53	22	1	22	0	53	0	53	22	5000;
%     46	28	10	1	10	0	28	0	28	10	5000;
%     47	34	0	1	0	0	34	0	34	0	5000;
%     48	20	11	1	11	0	20	0	20	11	5000;
%     49	87	30	1	30	0	87	0	87	30	5000;
%     50	17	4	1	4	0	17	0	17	4	5000;
%     51	17	8	1	8	0	17	0	17	8	5000;
%     52	18	5	1	5	0	18	0	18	5	5000;
%     53	23	11	1	11	0	23	0	23	11	5000;
%     54	113	32	1	32	0	113	0	113	32	5000;
%     55	63	22	1	22	0	63	0	63	22	5000;
%     56	84	18	1	18	0	84	0	84	18	5000;
%     57	12	3	1	3	0	12	0	12	3	5000;
%     58	12	3	1	3	0	12	0	12	3	5000;
%     59	277	113	1	113	0	277	0	277	113	5000;
%     60	78	3	1	3	0	78	0	78	3	5000;
%     61	0	0	1	0	0	0	0	0	0	5000;
%     62	77	14	1	14	0	77	0	77	14	5000;
%     63	0	0	1	0	0	0	0	0	0	5000;
%     64	0	0	1	0	0	0	0	0	0	5000;
%     65	0	0	1	0	0	0	0	0	0	5000;
%     66	39	18	1	18	0	39	0	39	18	5000;
%     67	28	7	1	7	0	28	0	28	7	5000;
%     68	0	0	1	0	0	0	0	0	0	5000;
%     69	0	0	1	0	0	0	0	0	0	5000;
%     70	66	20	1	20	0	66	0	66	20	5000;
%     71	0	0	1	0	0	0	0	0	0	5000;
%     72	12	0	1	0	0	12	0	12	0	5000;
%     73	6	0	1	0	0	6	0	6	0	5000;
%     74	68	27	1	27	0	68	0	68	27	5000;
%     75	47	11	1	11	0	47	0	47	11	5000;
%     76	68	36	1	36	0	68	0	68	36	5000;
%     77	61	28	1	28	0	61	0	61	28	5000;
%     78	71	26	1	26	0	71	0	71	26	5000;
%     79	39	32	1	32	0	39	0	39	32	5000;
%     80	130	26	1	26	0	130	0	130	26	5000;
%     81	0	0	1	0	0	0	0	0	0	5000;
%     82	54	27	1	27	0	54	0	54	27	5000;
%     83	20	10	1	10	0	20	0	20	10	5000;
%     84	11	7	1	7	0	11	0	11	7	5000;
%     85	24	15	1	15	0	24	0	24	15	5000;
%     86	21	10	1	10	0	21	0	21	10	5000;
%     87	0	0	1	0	0	0	0	0	0	5000;
%     88	48	10	1	10	0	48	0	48	10	5000;
%     89	0	0	1	0	0	0	0	0	0	5000;
%     90	163	42	1	42	0	163	0	163	42	5000;
%     91	10	0	1	0	0	10	0	10	0	5000;
%     92	65	10	1	10	0	65	0	65	10	5000;
%     93	12	7	1	7	0	12	0	12	7	5000;
%     94	30	16	1	16	0	30	0	30	16	5000;
%     95	42	31	1	31	0	42	0	42	31	5000;
%     96	38	15	1	15	0	38	0	38	15	5000;
%     97	15	9	1	9	0	15	0	15	9	5000;
%     98	34	8	1	8	0	34	0	34	8	5000;
%     99	42	0	1	0	0	42	0	42	0	5000;
%     100	37	18	1	18	0	37	0	37	18	5000;
%     101	22	15	1	15	0	22	0	22	15	5000;
%     102	5	3	1	3	0	5	0	5	3	5000;
%     103	23	16	1	16	0	23	0	23	16	5000;
%     104	38	25	1	25	0	38	0	38	25	5000;
%     105	31	26	1	26	0	31	0	31	26	5000;
%     106	43	16	1	16	0	43	0	43	16	5000;
%     107	50	12	1	12	0	50	0	50	12	5000;
%     108	2	1	1	1	0	2	0	2	1	5000;
%     109	8	3	1	3	0	8	0	8	3	5000;
%     110	39	30	1	30	0	39	0	39	30	5000;
%     111	0	0	1	0	0	0	0	0	0	5000;
%     112	68	13	1	13	0	68	0	68	13	5000;
%     113	6	0	1	0	0	6	0	6	0	5000;
%     114	8	3	1	3	0	8	0	8	3	5000;
%     115	22	7	1	7	0	22	0	22	7	5000;
%     116	184	0	1	0	0	184	0	184	0	5000;
%     117	20	8	1	8	0	20	0	20	8	5000;
%     118	33	15	1	15	0	33	0	33	15	5000;
%     ];

%column_names%	load_bus	pref	qref status	qmax	qmin pmax	pmin prated qrated voll
mpc.load = [
1	51	27	1	27	0	51	51	51	27	5000;
2	20	9	1	9	0	20	20	20	9	5000;
3	39	10	1	10	0	39	39	39	10	5000;
4	39	12	1	12	0	39	39	39	12	5000;
5	0	0	1	0	0	0	0	0	0	5000;
6	52	22	1	22	0	52	52	52	22	5000;
7	19	2	1	2	0	19	19	19	2	5000;
8	28	0	1	0	0	28	28	28	0	5000;
9	0	0	1	0	0	0	0	0	0	5000;
10	0	0	1	0	0	0	0	0	0	5000;
11	70	23	1	23	0	70	70	70	23	5000;
12	47	10	1	10	0	47	47	47	10	5000;
13	34	16	1	16	0	34	34	34	16	5000;
14	14	1	1	1	0	14	14	14	1	5000;
15	90	30	1	30	0	90	90	90	30	5000;
16	25	10	1	10	0	25	25	25	10	5000;
17	11	3	1	3	0	11	11	11	3	5000;
18	60	34	1	34	0	60	60	60	34	5000;
19	45	25	1	25	0	45	45	45	25	5000;
20	18	3	1	3	0	18	18	18	3	5000;
21	14	8	1	8	0	14	14	14	8	5000;
22	10	5	1	5	0	10	10	10	5	5000;
23	7	3	1	3	0	7	7	7	3	5000;
24	13	0	1	0	0	13	13	13	0	5000;
25	0	0	1	0	0	0	0	0	0	5000;
26	0	0	1	0	0	0	0	0	0	5000;
27	71	13	1	13	0	71	71	71	13	5000;
28	17	7	1	7	0	17	17	17	7	5000;
29	24	4	1	4	0	24	24	24	4	5000;
30	0	0	1	0	0	0	0	0	0	5000;
31	43	27	1	27	0	43	43	43	27	5000;
32	59	23	1	23	0	59	59	59	23	5000;
33	23	9	1	9	0	23	23	23	9	5000;
34	59	26	1	26	0	59	59	59	26	5000;
35	33	9	1	9	0	33	33	33	9	5000;
36	31	17	1	17	0	31	31	31	17	5000;
37	0	0	1	0	0	0	0	0	0	5000;
38	0	0	1	0	0	0	0	0	0	5000;
39	27	11	1	11	0	27	27	27	11	5000;
40	66	23	1	23	0	66	66	66	23	5000;
41	37	10	1	10	0	37	37	37	10	5000;
42	96	23	1	23	0	96	96	96	23	5000;
43	18	7	1	7	0	18	18	18	7	5000;
44	16	8	1	8	0	16	16	16	8	5000;
45	53	22	1	22	0	53	53	53	22	5000;
46	28	10	1	10	0	28	28	28	10	5000;
47	34	0	1	0	0	34	34	34	0	5000;
48	20	11	1	11	0	20	20	20	11	5000;
49	87	30	1	30	0	87	87	87	30	5000;
50	17	4	1	4	0	17	17	17	4	5000;
51	17	8	1	8	0	17	17	17	8	5000;
52	18	5	1	5	0	18	18	18	5	5000;
53	23	11	1	11	0	23	23	23	11	5000;
54	113	32	1	32	0	113	113	113	32	5000;
55	63	22	1	22	0	63	63	63	22	5000;
56	84	18	1	18	0	84	84	84	18	5000;
57	12	3	1	3	0	12	12	12	3	5000;
58	12	3	1	3	0	12	12	12	3	5000;
59	277	113	1	113	0	277	277	277	113	5000;
60	78	3	1	3	0	78	78	78	3	5000;
61	0	0	1	0	0	0	0	0	0	5000;
62	77	14	1	14	0	77	77	77	14	5000;
63	0	0	1	0	0	0	0	0	0	5000;
64	0	0	1	0	0	0	0	0	0	5000;
65	0	0	1	0	0	0	0	0	0	5000;
66	39	18	1	18	0	39	39	39	18	5000;
67	28	7	1	7	0	28	28	28	7	5000;
68	0	0	1	0	0	0	0	0	0	5000;
69	0	0	1	0	0	0	0	0	0	5000;
70	66	20	1	20	0	66	66	66	20	5000;
71	0	0	1	0	0	0	0	0	0	5000;
72	12	0	1	0	0	12	12	12	0	5000;
73	6	0	1	0	0	6	6	6	0	5000;
74	68	27	1	27	0	68	68	68	27	5000;
75	47	11	1	11	0	47	47	47	11	5000;
76	68	36	1	36	0	68	68	68	36	5000;
77	61	28	1	28	0	61	61	61	28	5000;
78	71	26	1	26	0	71	71	71	26	5000;
79	39	32	1	32	0	39	39	39	32	5000;
80	130	26	1	26	0	130	130	130	26	5000;
81	0	0	1	0	0	0	0	0	0	5000;
82	54	27	1	27	0	54	54	54	27	5000;
83	20	10	1	10	0	20	20	20	10	5000;
84	11	7	1	7	0	11	11	11	7	5000;
85	24	15	1	15	0	24	24	24	15	5000;
86	21	10	1	10	0	21	21	21	10	5000;
87	0	0	1	0	0	0	0	0	0	5000;
88	48	10	1	10	0	48	48	48	10	5000;
89	0	0	1	0	0	0	0	0	0	5000;
90	163	42	1	42	0	163	163	163	42	5000;
91	10	0	1	0	0	10	10	10	0	5000;
92	65	10	1	10	0	65	65	65	10	5000;
93	12	7	1	7	0	12	12	12	7	5000;
94	30	16	1	16	0	30	30	30	16	5000;
95	42	31	1	31	0	42	42	42	31	5000;
96	38	15	1	15	0	38	38	38	15	5000;
97	15	9	1	9	0	15	15	15	9	5000;
98	34	8	1	8	0	34	34	34	8	5000;
99	42	0	1	0	0	42	42	42	0	5000;
100	37	18	1	18	0	37	37	37	18	5000;
101	22	15	1	15	0	22	22	22	15	5000;
102	5	3	1	3	0	5	5	5	3	5000;
103	23	16	1	16	0	23	23	23	16	5000;
104	38	25	1	25	0	38	38	38	25	5000;
105	31	26	1	26	0	31	31	31	26	5000;
106	43	16	1	16	0	43	43	43	16	5000;
107	50	12	1	12	0	50	50	50	12	5000;
108	2	1	1	1	0	2	2	2	1	5000;
109	8	3	1	3	0	8	8	8	3	5000;
110	39	30	1	30	0	39	39	39	30	5000;
111	0	0	1	0	0	0	0	0	0	5000;
112	68	13	1	13	0	68	68	68	13	5000;
113	6	0	1	0	0	6	6	6	0	5000;
114	8	3	1	3	0	8	8	8	3	5000;
115	22	7	1	7	0	22	22	22	7	5000;
116	184	0	1	0	0	184	184	184	0	5000;
117	20	8	1	8	0	20	20	20	8	5000;
118	33	15	1	15	0	33	33	33	15	5000;
];

%% generator data
%	bus	Pg	Qg	Qmax	Qmin	Vg	mBase	status	Pmax	Pmin	Pc1	Pc2	Qc1min	Qc1max	Qc2min	Qc2max	ramp_agc	ramp_10	ramp_30	ramp_q	apf
mpc.gen = [
1	0	14.9997417255247	15	-5	1.03288369946984	100	1	0	0	0	0	0	0	0	0	0	0	0	0	0	1.24844800435941	0	0.00859136172144137	0;
4	0	48.0270218683761	300	-300	1.05695012382517	100	1	0	0	0	0	0	0	0	0	0	0	0	0	0	1.21793523850317	0	0	0;
6	0	27.1880857018100	50	-13	1.05499580425794	100	1	0	0	0	0	0	0	0	0	0	0	0	0	0	1.22335689938984	0	0	0;
8	0	-71.6682405352844	300	-300	1.04466682405503	100	1	0	0	0	0	0	0	0	0	0	0	0	0	0	1.21290118016473	0	0	0;
10	8.86071568344016e-06	-145.123394030959	200	-147	1.03536771828475	100	1	663	0	0	0	0	0	0	0	0	0	0	0	0	0	0.250612149624416	0	0;
12	286.999993156386	57.5003395511161	120	-35	1.05973944054506	100	1	287	0	0	0	0	0	0	0	0	0	0	0	0	0.323752692295418	0	0	0;
15	0	29.9942990485805	30	-10	1.04940836749001	100	1	0	0	0	0	0	0	0	0	0	0	0	0	0	1.23025666700981	0	0.00149476263972702	0;
18	0	43.4842966485054	50	-16	1.05267783100213	100	1	0	0	0	0	0	0	0	0	0	0	0	0	0	1.22514524876027	0	0	0;
19	0	23.9986608004092	24	-8	1.04788669601264	100	1	0	0	0	0	0	0	0	0	0	0	0	0	0	1.23087181065147	0	0.00221758848196707	0;
24	0	9.36215790837624	300	-300	1.05681894894829	100	1	0	0	0	0	0	0	0	0	0	0	0	0	0	1.12455966442146	0	0	0;
25	266.999987550377	-46.9997605040253	134	-47	1.05999996179115	100	1	267	0	0	0	0	0	0	0	0	0	0	0	0	0.178253297700177	0	0	0.00937191736763971;
26	286.792939498662	-25.0598375854770	226	-226	1.02523576433431	100	1	451	0	0	0	0	0	0	0	0	0	0	0	0	0	0	0	0;
27	0	30.4924451513644	300	-300	1.04144000209556	100	1	0	0	0	0	0	0	0	0	0	0	0	0	0	1.19350168232165	0	0	0;
31	22.9999944080875	11.9994201377314	12	-12	1.03445766187313	100	1	23	0	0	0	0	0	0	0	0	0	0	0	0	0.397288046413249	0	0.00505725631804230	0;
32	0	35.9955105267097	42	-14	1.04236567171749	100	1	0	0	0	0	0	0	0	0	0	0	0	0	0	1.19733908170910	0	0	0;
34	0	23.9998142046791	24	-8	1.05774922366741	100	1	0	0	0	0	0	0	0	0	0	0	0	0	0	1.22060548968399	0	0.00943165250919168	0;
36	0	23.9998222354178	24	-8	1.05569982463604	100	1	0	0	0	0	0	0	0	0	0	0	0	0	0	1.22499774233106	0	0.00995128661362497	0;
40	0	49.9243479935188	300	-300	1.02959961799499	100	1	0	0	0	0	0	0	0	0	0	0	0	0	0	1.30163159775808	0	0	0;
42	0	26.3190858449638	300	-300	1.01040066581342	100	1	0	0	0	0	0	0	0	0	0	0	0	0	0	1.32237136628673	0	0	0;
46	1.05193460988788e-05	7.71995680986653	26	-26	1.01211143247386	100	1	51	0	0	0	0	0	0	0	0	0	0	0	0	0	0.210557078358170	0	0;
49	231.999989293540	-11.0636550417525	116	-85	1.02322304072397	100	1	232	0	0	0	0	0	0	0	0	0	0	0	0	0.207413586808980	0	0	0;
54	3.97148408283752e-05	55.7905020286754	75	-75	1.01030823522666	100	1	150	0	0	0	0	0	0	0	0	0	0	0	0	0	0.0556029515191602	0	0;
55	0	22.9977061881480	23	-8	1.01051257238627	100	1	0	0	0	0	0	0	0	0	0	0	0	0	0	1.26358026733824	0	0.00146380253230816	0;
56	0	14.9968467913789	15	-8	1.00980383652585	100	1	0	0	0	0	0	0	0	0	0	0	0	0	0	1.26631259273624	0	0	0;
59	7.24166752665161e-06	140.999716910516	141	-60	1.04824020941918	100	1	282	0	0	0	0	0	0	0	0	0	0	0	0	0	0.305881613671974	0.0104037889214038	0;
61	1.03062279179409e-05	124.391093326423	126	-100	1.05999985743989	100	1	251	0	0	0	0	0	0	0	0	0	0	0	0	0	0.214790885177788	0	0;
62	0	-19.7847244444268	20	-20	1.04639459108837	100	1	0	0	0	0	0	0	0	0	0	0	0	0	0	1.00974104885317	0	0	0;
65	295.353980426645	119.758384391229	200	-67	1.02986509519456	100	1	608	0	0	0	0	0	0	0	0	0	0	0	0	0	0	0	0;
66	829.461138674558	-66.9999484333984	200	-67	1.05999997121113	100	1	865	0	0	0	0	0	0	0	0	0	0	0	0	0	0	0	0.0439390963463592;
69	880.999995292750	-114.499398075079	300	-300	1.05999997725914	100	1	881	0	0	0	0	0	0	0	0	0	0	0	0	0.471400767471870	0	0	0;
70	0	31.9990449186736	32	-10	1.03170086765134	100	1	0	0	0	0	0	0	0	0	0	0	0	0	0	1.08539374844583	0	0.00246809807332319	0;
72	0	-1.83538915763558	100	-100	1.04424751090098	100	1	0	0	0	0	0	0	0	0	0	0	0	0	0	1.11286968972446	0	0	0
73	0	5.03658464452433	100	-100	1.03744707964232	100	1	0	0	0	0	0	0	0	0	0	0	0	0	0	1.09197021091226	0	0	0
74	0	8.99978993414160	9	-6	1.01047857270712	100	1	0	0	0	0	0	0	0	0	0	0	0	0	0	1.09560881366347	0	0.0106525627918897	0;
76	0	22.9998669140759	23	-8	0.999595939249165	100	1	0	0	0	0	0	0	0	0	0	0	0	0	0	1.09276177940132	0	0.0167449810075151	0;
77	0	69.9989828171801	70	-20	1.04410294711087	100	1	0	0	0	0	0	0	0	0	0	0	0	0	0	1.02952379781969	0	0.00218630408960811	0;
80	445.773015434727	-0.203740114231859	280	-165	1.05999986881372	100	1	739	0	0	0	0	0	0	0	0	0	0	0	0	0	0	0	0;
85	0	22.9998696583627	23	-8	1.04906666850228	100	1	0	0	0	0	0	0	0	0	0	0	0	0	0	0.886497795718862	0	0.0169195006981392	0;
87	4.61026159022512e-06	3.99984435729711	4	-4	1.05481336448442	100	1	7	0	0	0	0	0	0	0	0	0	0	0	0	0	0.481678177131928	0.0140780248285474	0;
89	568.006174778810	-31.5618896595727	300	-210	1.05999995920182	100	1	845	0	0	0	0	0	0	0	0	0	0	0	0	0	0	0	0;
90	0	76.2129632358894	300	-300	1.05125611369805	100	1	0	0	0	0	0	0	0	0	0	0	0	0	0	0.888889380549321	0	0	0;
91	0	-8.92468094997580	100	-100	1.04436121264209	100	1	0	0	0	0	0	0	0	0	0	0	0	0	0	0.957802785257935	0	0	0;
92	0	-2.99913339851926	9	-3	1.04495131124305	100	1	0	0	0	0	0	0	0	0	0	0	0	0	0	1.05654774525677	0	0	0.00252168234350669;
99	0	-0.197135510538153	100	-100	1.05160277956836	100	1	0	0	0	0	0	0	0	0	0	0	0	0	0	1.05987428624847	0	0	0;
100	186.388253896434	49.8154657011957	151	-50	1.05328008751790	100	1	301	0	0	0	0	0	0	0	0	0	0	0	0	0	0	0	0
103	97.9999945290567	29.9782682651573	40	-15	1.05037248550051	100	1	98	0	0	0	0	0	0	0	0	0	0	0	0	0.405745630001528	0	0	0;
104	0	22.9934955498827	23	-8	1.03707781338136	100	1	0	0	0	0	0	0	0	0	0	0	0	0	0	1.12873564924603	0	0.00139667325494156	0;
105	0	22.9553835237027	23	-8	1.03455274456496	100	1	0	0	0	0	0	0	0	0	0	0	0	0	0	1.14105132371377	0	0	0;
107	0	7.01988276955098	200	-200	1.02207426444085	100	1	0	0	0	0	0	0	0	0	0	0	0	0	0	1.17190932274677	0	0	0;
110	0	22.9986168840287	23	-8	1.02319321282162	100	1	0	0	0	0	0	0	0	0	0	0	0	0	0	1.17895861797322	0	0.00208936602433251	0;
111	9.81873410053662e-05	3.17606488116643	67	-67	1.02630415962014	100	1	133	0	0	0	0	0	0	0	0	0	0	0	0	0	0.0219266049270711	0	0;
112	0	16.4020683978294	1000	-100	1.00974179505731	100	1	0	0	0	0	0	0	0	0	0	0	0	0	0	1.21871290892915	0	0	0;
113	0	-3.79997987172122	200	-100	1.05702448475848	100	1	0	0	0	0	0	0	0	0	0	0	0	0	0	1.20326883287322	0	0	0;
116	0	-19.8802030330715	1000	-1000	1.01952244228330	100	1	0	0	0	0	0	0	0	0	0	0	0	0	0	0.980488745738085	0	0	0;
];

%column_names% prated qrated pref qref
mpc.gen_rated = [
    0	15	0	15;
    0	300	0	48.4100000000000;
    0	50	0	27.2540000000000;
    0	300	0	-71.8670000000000;
    663	200	0	-145.350000000000;
    287	120	287	57.8300000000000;
    0	30	0	30;
    0	50	0	43.3310000000000;
    0	24	0	24;
    0	300	0	9.36500000000000;
    267	134	267	-47;
    451	226	286.801000000000	-25.0580000000000;
    0	300	0	30.4800000000000;
    23	12	23	12;
    0	42	0	35.9790000000000;
    0	24	0	24;
    0	24	0	24;
    0	300	0	49.9430000000000;
    0	300	0	26.3210000000000;
    51	26	0	7.72000000000000;
    232	116	232	-11.0100000000000;
    150	75	0	55.7060000000000;
    0	23	0	23;
    0	15	0	15;
    282	141	0	141;
    251	126	0	124.577000000000;
    0	20	0	-19.9990000000000;
    608	200	295.338000000000	119.802000000000;
    865	200	829.470000000000	-67;
    881	300	881	-114.523000000000;
    0	32	0	32;
    0	100	0	-1.83500000000000;
    0	100	0	5.03600000000000;
    0	9	0	9;
    0	23	0	23;
    0	70	0	70;
    739	280	445.771000000000	-0.216000000000000;
    0	23	0	23;
    7	4	0	4;
    845	300	568.006000000000	-31.5640000000000;
    0	300	0	76.2140000000000;
    0	100	0	-8.92300000000000;
    0	9	0	-3;
    0	100	0	-0.197000000000000;
    301	151	186.388000000000	49.8030000000000;
    98	40	98	29.9590000000000;
    0	23	0	23;
    0	23	0	23;
    0	200	0	7.00500000000000;
    0	23	0	23;
    133	67	0	3.17300000000000;
    0	1000	0	16.3990000000000;
    0	200	0	-3.98400000000000;
    0	1000	0	-19.8640000000000  
];

%% generator cost data
%	2	startup	shutdown	n	c(n-1)	...	c0
mpc.gencost = [
	2	 0.0	 0.0	 3	   0.000000	   0.000000	   0.000000; % SYNC
	2	 0.0	 0.0	 3	   0.000000	   0.000000	   0.000000; % SYNC
	2	 0.0	 0.0	 3	   0.000000	   0.000000	   0.000000; % SYNC
	2	 0.0	 0.0	 3	   0.000000	   0.000000	   0.000000; % SYNC
	2	 0.0	 0.0	 3	   0.000000	   1.463389	   0.000000; % NG
	2	 0.0	 0.0	 3	   0.000000	   0.889054	   0.000000; % NG
	2	 0.0	 0.0	 3	   0.000000	   0.000000	   0.000000; % SYNC
	2	 0.0	 0.0	 3	   0.000000	   0.000000	   0.000000; % SYNC
	2	 0.0	 0.0	 3	   0.000000	   0.000000	   0.000000; % SYNC
	2	 0.0	 0.0	 3	   0.000000	   0.000000	   0.000000; % SYNC
	2	 0.0	 0.0	 3	   0.000000	   0.929688	   0.000000; % NG
	2	 0.0	 0.0	 3	   0.000000	   1.118121	   0.000000; % NG
	2	 0.0	 0.0	 3	   0.000000	   0.000000	   0.000000; % SYNC
	2	 0.0	 0.0	 3	   0.000000	   0.814446	   0.000000; % NG
	2	 0.0	 0.0	 3	   0.000000	   0.000000	   0.000000; % SYNC
	2	 0.0	 0.0	 3	   0.000000	   0.000000	   0.000000; % SYNC
	2	 0.0	 0.0	 3	   0.000000	   0.000000	   0.000000; % SYNC
	2	 0.0	 0.0	 3	   0.000000	   0.000000	   0.000000; % SYNC
	2	 0.0	 0.0	 3	   0.000000	   0.000000	   0.000000; % SYNC
	2	 0.0	 0.0	 3	   0.000000	   1.513792	   0.000000; % NG
	2	 0.0	 0.0	 3	   0.000000	   1.071413	   0.000000; % NG
	2	 0.0	 0.0	 3	   0.000000	   1.324712	   0.000000; % NG
	2	 0.0	 0.0	 3	   0.000000	   0.000000	   0.000000; % SYNC
	2	 0.0	 0.0	 3	   0.000000	   0.000000	   0.000000; % SYNC
	2	 0.0	 0.0	 3	   0.000000	   1.426207	   0.000000; % NG
	2	 0.0	 0.0	 3	   0.000000	   1.245208	   0.000000; % NG
	2	 0.0	 0.0	 3	   0.000000	   0.000000	   0.000000; % SYNC
	2	 0.0	 0.0	 3	   0.000000	   0.969762	   0.000000; % NG
	2	 0.0	 0.0	 3	   0.000000	   0.865713	   0.000000; % COW
	2	 0.0	 0.0	 3	   0.000000	   0.518513	   0.000000; % COW
	2	 0.0	 0.0	 3	   0.000000	   0.000000	   0.000000; % SYNC
	2	 0.0	 0.0	 3	   0.000000	   0.000000	   0.000000; % SYNC
	2	 0.0	 0.0	 3	   0.000000	   0.000000	   0.000000; % SYNC
	2	 0.0	 0.0	 3	   0.000000	   0.000000	   0.000000; % SYNC
	2	 0.0	 0.0	 3	   0.000000	   0.000000	   0.000000; % SYNC
	2	 0.0	 0.0	 3	   0.000000	   0.000000	   0.000000; % SYNC
	2	 0.0	 0.0	 3	   0.000000	   1.006636	   0.000000; % COW
	2	 0.0	 0.0	 3	   0.000000	   0.000000	   0.000000; % SYNC
	2	 0.0	 0.0	 3	   0.000000	   1.381184	   0.000000; % NG
	2	 0.0	 0.0	 3	   0.000000	   0.793496	   0.000000; % COW
	2	 0.0	 0.0	 3	   0.000000	   0.000000	   0.000000; % SYNC
	2	 0.0	 0.0	 3	   0.000000	   0.000000	   0.000000; % SYNC
	2	 0.0	 0.0	 3	   0.000000	   0.000000	   0.000000; % SYNC
	2	 0.0	 0.0	 3	   0.000000	   0.000000	   0.000000; % SYNC
	2	 0.0	 0.0	 3	   0.000000	   1.066562	   0.000000; % NG
	2	 0.0	 0.0	 3	   0.000000	   0.691193	   0.000000; % NG
	2	 0.0	 0.0	 3	   0.000000	   0.000000	   0.000000; % SYNC
	2	 0.0	 0.0	 3	   0.000000	   0.000000	   0.000000; % SYNC
	2	 0.0	 0.0	 3	   0.000000	   0.000000	   0.000000; % SYNC
	2	 0.0	 0.0	 3	   0.000000	   0.000000	   0.000000; % SYNC
	2	 0.0	 0.0	 3	   0.000000	   1.200887	   0.000000; % NG
	2	 0.0	 0.0	 3	   0.000000	   0.000000	   0.000000; % SYNC
	2	 0.0	 0.0	 3	   0.000000	   0.000000	   0.000000; % SYNC
	2	 0.0	 0.0	 3	   0.000000	   0.000000	   0.000000; % SYNC
];

%% branch data
%	fbus	tbus	r	x	b	rateA	rateB	rateC	ratio	angle	status	angmin	angmax
mpc.branch = [
	1	 2	 0.0303	 0.0999	 0.0254	 151	 151	 151	 0.0	 0.0	 1	 -30.0	 30.0;
	1	 3	 0.0129	 0.0424	 0.01082	 151	 151	 151	 0.0	 0.0	 1	 -30.0	 30.0;
	4	 5	 0.00176	 0.00798	 0.0021	 176	 176	 176	 0.0	 0.0	 1	 -30.0	 30.0;
	3	 5	 0.0241	 0.108	 0.0284	 175	 175	 175	 0.0	 0.0	 1	 -30.0	 30.0;
	5	 6	 0.0119	 0.054	 0.01426	 176	 176	 176	 0.0	 0.0	 1	 -30.0	 30.0;
	6	 7	 0.00459	 0.0208	 0.0055	 176	 176	 176	 0.0	 0.0	 1	 -30.0	 30.0;
	8	 9	 0.00244	 0.0305	 1.162	 711	 711	 711	 0.0	 0.0	 1	 -30.0	 30.0;
	8	 5	 0.0	 0.0267	 0.0	 1099	 1099	 1099	 0.985	 0.0	 1	 -30.0	 30.0;
	9	 10	 0.00258	 0.0322	 1.23	 710	 710	 710	 0.0	 0.0	 1	 -30.0	 30.0;
	4	 11	 0.0209	 0.0688	 0.01748	 151	 151	 151	 0.0	 0.0	 1	 -30.0	 30.0;
	5	 11	 0.0203	 0.0682	 0.01738	 152	 152	 152	 0.0	 0.0	 1	 -30.0	 30.0;
	11	 12	 0.00595	 0.0196	 0.00502	 151	 151	 151	 0.0	 0.0	 1	 -30.0	 30.0;
	2	 12	 0.0187	 0.0616	 0.01572	 151	 151	 151	 0.0	 0.0	 1	 -30.0	 30.0;
	3	 12	 0.0484	 0.16	 0.0406	 151	 151	 151	 0.0	 0.0	 1	 -30.0	 30.0;
	7	 12	 0.00862	 0.034	 0.00874	 164	 164	 164	 0.0	 0.0	 1	 -30.0	 30.0;
	11	 13	 0.02225	 0.0731	 0.01876	 151	 151	 151	 0.0	 0.0	 1	 -30.0	 30.0;
	12	 14	 0.0215	 0.0707	 0.01816	 151	 151	 151	 0.0	 0.0	 1	 -30.0	 30.0;
	13	 15	 0.0744	 0.2444	 0.06268	 115	 115	 115	 0.0	 0.0	 1	 -30.0	 30.0;
	14	 15	 0.0595	 0.195	 0.0502	 144	 144	 144	 0.0	 0.0	 1	 -30.0	 30.0;
	12	 16	 0.0212	 0.0834	 0.0214	 164	 164	 164	 0.0	 0.0	 1	 -30.0	 30.0;
	15	 17	 0.0132	 0.0437	 0.0444	 151	 151	 151	 0.0	 0.0	 1	 -30.0	 30.0;
	16	 17	 0.0454	 0.1801	 0.0466	 158	 158	 158	 0.0	 0.0	 1	 -30.0	 30.0;
	17	 18	 0.0123	 0.0505	 0.01298	 167	 167	 167	 0.0	 0.0	 1	 -30.0	 30.0;
	18	 19	 0.01119	 0.0493	 0.01142	 173	 173	 173	 0.0	 0.0	 1	 -30.0	 30.0;
	19	 20	 0.0252	 0.117	 0.0298	 178	 178	 178	 0.0	 0.0	 1	 -30.0	 30.0;
	15	 19	 0.012	 0.0394	 0.0101	 151	 151	 151	 0.0	 0.0	 1	 -30.0	 30.0;
	20	 21	 0.0183	 0.0849	 0.0216	 177	 177	 177	 0.0	 0.0	 1	 -30.0	 30.0;
	21	 22	 0.0209	 0.097	 0.0246	 178	 178	 178	 0.0	 0.0	 1	 -30.0	 30.0;
	22	 23	 0.0342	 0.159	 0.0404	 178	 178	 178	 0.0	 0.0	 1	 -30.0	 30.0;
	23	 24	 0.0135	 0.0492	 0.0498	 158	 158	 158	 0.0	 0.0	 1	 -30.0	 30.0;
	23	 25	 0.0156	 0.08	 0.0864	 186	 186	 186	 0.0	 0.0	 1	 -30.0	 30.0;
	26	 25	 0.0	 0.0382	 0.0	 768	 768	 768	 0.96	 0.0	 1	 -30.0	 30.0;
	25	 27	 0.0318	 0.163	 0.1764	 177	 177	 177	 0.0	 0.0	 1	 -30.0	 30.0;
	27	 28	 0.01913	 0.0855	 0.0216	 174	 174	 174	 0.0	 0.0	 1	 -30.0	 30.0;
	28	 29	 0.0237	 0.0943	 0.0238	 165	 165	 165	 0.0	 0.0	 1	 -30.0	 30.0;
	30	 17	 0.0	 0.0388	 0.0	 756	 756	 756	 0.96	 0.0	 1	 -30.0	 30.0;
	8	 30	 0.00431	 0.0504	 0.514	 580	 580	 580	 0.0	 0.0	 1	 -30.0	 30.0;
	26	 30	 0.00799	 0.086	 0.908	 340	 340	 340	 0.0	 0.0	 1	 -30.0	 30.0;
	17	 31	 0.0474	 0.1563	 0.0399	 151	 151	 151	 0.0	 0.0	 1	 -30.0	 30.0;
	29	 31	 0.0108	 0.0331	 0.0083	 146	 146	 146	 0.0	 0.0	 1	 -30.0	 30.0;
	23	 32	 0.0317	 0.1153	 0.1173	 158	 158	 158	 0.0	 0.0	 1	 -30.0	 30.0;
	31	 32	 0.0298	 0.0985	 0.0251	 151	 151	 151	 0.0	 0.0	 1	 -30.0	 30.0;
	27	 32	 0.0229	 0.0755	 0.01926	 151	 151	 151	 0.0	 0.0	 1	 -30.0	 30.0;
	15	 33	 0.038	 0.1244	 0.03194	 150	 150	 150	 0.0	 0.0	 1	 -30.0	 30.0;
	19	 34	 0.0752	 0.247	 0.0632	 114	 114	 114	 0.0	 0.0	 1	 -30.0	 30.0;
	35	 36	 0.00224	 0.0102	 0.00268	 176	 176	 176	 0.0	 0.0	 1	 -30.0	 30.0;
	35	 37	 0.011	 0.0497	 0.01318	 175	 175	 175	 0.0	 0.0	 1	 -30.0	 30.0;
	33	 37	 0.0415	 0.142	 0.0366	 154	 154	 154	 0.0	 0.0	 1	 -30.0	 30.0;
	34	 36	 0.00871	 0.0268	 0.00568	 146	 146	 146	 0.0	 0.0	 1	 -30.0	 30.0;
	34	 37	 0.00256	 0.0094	 0.00984	 159	 159	 159	 0.0	 0.0	 1	 -30.0	 30.0;
	38	 37	 0.0	 0.0375	 0.0	 783	 783	 783	 0.935	 0.0	 1	 -30.0	 30.0;
	37	 39	 0.0321	 0.106	 0.027	 151	 151	 151	 0.0	 0.0	 1	 -30.0	 30.0;
	37	 40	 0.0593	 0.168	 0.042	 140	 140	 140	 0.0	 0.0	 1	 -30.0	 30.0;
	30	 38	 0.00464	 0.054	 0.422	 542	 542	 542	 0.0	 0.0	 1	 -30.0	 30.0;
	39	 40	 0.0184	 0.0605	 0.01552	 151	 151	 151	 0.0	 0.0	 1	 -30.0	 30.0;
	40	 41	 0.0145	 0.0487	 0.01222	 152	 152	 152	 0.0	 0.0	 1	 -30.0	 30.0;
	40	 42	 0.0555	 0.183	 0.0466	 151	 151	 151	 0.0	 0.0	 1	 -30.0	 30.0;
	41	 42	 0.041	 0.135	 0.0344	 151	 151	 151	 0.0	 0.0	 1	 -30.0	 30.0;
	43	 44	 0.0608	 0.2454	 0.06068	 117	 117	 117	 0.0	 0.0	 1	 -30.0	 30.0;
	34	 43	 0.0413	 0.1681	 0.04226	 167	 167	 167	 0.0	 0.0	 1	 -30.0	 30.0;
	44	 45	 0.0224	 0.0901	 0.0224	 166	 166	 166	 0.0	 0.0	 1	 -30.0	 30.0;
	45	 46	 0.04	 0.1356	 0.0332	 153	 153	 153	 0.0	 0.0	 1	 -30.0	 30.0;
	46	 47	 0.038	 0.127	 0.0316	 152	 152	 152	 0.0	 0.0	 1	 -30.0	 30.0;
	46	 48	 0.0601	 0.189	 0.0472	 148	 148	 148	 0.0	 0.0	 1	 -30.0	 30.0;
	47	 49	 0.0191	 0.0625	 0.01604	 150	 150	 150	 0.0	 0.0	 1	 -30.0	 30.0;
	42	 49	 0.0715	 0.323	 0.086	 89	 89	 89	 0.0	 0.0	 1	 -30.0	 30.0;
	42	 49	 0.0715	 0.323	 0.086	 89	 89	 89	 0.0	 0.0	 1	 -30.0	 30.0;
	45	 49	 0.0684	 0.186	 0.0444	 138	 138	 138	 0.0	 0.0	 1	 -30.0	 30.0;
	48	 49	 0.0179	 0.0505	 0.01258	 140	 140	 140	 0.0	 0.0	 1	 -30.0	 30.0;
	49	 50	 0.0267	 0.0752	 0.01874	 140	 140	 140	 0.0	 0.0	 1	 -30.0	 30.0;
	49	 51	 0.0486	 0.137	 0.0342	 140	 140	 140	 0.0	 0.0	 1	 -30.0	 30.0;
	51	 52	 0.0203	 0.0588	 0.01396	 142	 142	 142	 0.0	 0.0	 1	 -30.0	 30.0;
	52	 53	 0.0405	 0.1635	 0.04058	 166	 166	 166	 0.0	 0.0	 1	 -30.0	 30.0;
	53	 54	 0.0263	 0.122	 0.031	 177	 177	 177	 0.0	 0.0	 1	 -30.0	 30.0;
	49	 54	 0.073	 0.289	 0.0738	 99	 99	 99	 0.0	 0.0	 1	 -30.0	 30.0;
	49	 54	 0.0869	 0.291	 0.073	 97	 97	 97	 0.0	 0.0	 1	 -30.0	 30.0;
	54	 55	 0.0169	 0.0707	 0.0202	 169	 169	 169	 0.0	 0.0	 1	 -30.0	 30.0;
	54	 56	 0.00275	 0.00955	 0.00732	 155	 155	 155	 0.0	 0.0	 1	 -30.0	 30.0;
	55	 56	 0.00488	 0.0151	 0.00374	 146	 146	 146	 0.0	 0.0	 1	 -30.0	 30.0;
	56	 57	 0.0343	 0.0966	 0.0242	 140	 140	 140	 0.0	 0.0	 1	 -30.0	 30.0;
	50	 57	 0.0474	 0.134	 0.0332	 140	 140	 140	 0.0	 0.0	 1	 -30.0	 30.0;
	56	 58	 0.0343	 0.0966	 0.0242	 140	 140	 140	 0.0	 0.0	 1	 -30.0	 30.0;
	51	 58	 0.0255	 0.0719	 0.01788	 140	 140	 140	 0.0	 0.0	 1	 -30.0	 30.0;
	54	 59	 0.0503	 0.2293	 0.0598	 125	 125	 125	 0.0	 0.0	 1	 -30.0	 30.0;
	56	 59	 0.0825	 0.251	 0.0569	 112	 112	 112	 0.0	 0.0	 1	 -30.0	 30.0;
	56	 59	 0.0803	 0.239	 0.0536	 117	 117	 117	 0.0	 0.0	 1	 -30.0	 30.0;
	55	 59	 0.04739	 0.2158	 0.05646	 133	 133	 133	 0.0	 0.0	 1	 -30.0	 30.0;
	59	 60	 0.0317	 0.145	 0.0376	 176	 176	 176	 0.0	 0.0	 1	 -30.0	 30.0;
	59	 61	 0.0328	 0.15	 0.0388	 176	 176	 176	 0.0	 0.0	 1	 -30.0	 30.0;
	60	 61	 0.00264	 0.0135	 0.01456	 186	 186	 186	 0.0	 0.0	 1	 -30.0	 30.0;
	60	 62	 0.0123	 0.0561	 0.01468	 176	 176	 176	 0.0	 0.0	 1	 -30.0	 30.0;
	61	 62	 0.00824	 0.0376	 0.0098	 176	 176	 176	 0.0	 0.0	 1	 -30.0	 30.0;
	63	 59	 0.0	 0.0386	 0.0	 760	 760	 760	 0.96	 0.0	 1	 -30.0	 30.0;
	63	 64	 0.00172	 0.02	 0.216	 687	 687	 687	 0.0	 0.0	 1	 -30.0	 30.0;
	64	 61	 0.0	 0.0268	 0.0	 1095	 1095	 1095	 0.985	 0.0	 1	 -30.0	 30.0;
	38	 65	 0.00901	 0.0986	 1.046	 297	 297	 297	 0.0	 0.0	 1	 -30.0	 30.0;
	64	 65	 0.00269	 0.0302	 0.38	 675	 675	 675	 0.0	 0.0	 1	 -30.0	 30.0;
	49	 66	 0.018	 0.0919	 0.0248	 186	 186	 186	 0.0	 0.0	 1	 -30.0	 30.0;
	49	 66	 0.018	 0.0919	 0.0248	 186	 186	 186	 0.0	 0.0	 1	 -30.0	 30.0;
	62	 66	 0.0482	 0.218	 0.0578	 132	 132	 132	 0.0	 0.0	 1	 -30.0	 30.0;
	62	 67	 0.0258	 0.117	 0.031	 176	 176	 176	 0.0	 0.0	 1	 -30.0	 30.0;
	65	 66	 0.0	 0.037	 0.0	 793	 793	 793	 0.935	 0.0	 1	 -30.0	 30.0;
	66	 67	 0.0224	 0.1015	 0.02682	 176	 176	 176	 0.0	 0.0	 1	 -30.0	 30.0;
	65	 68	 0.00138	 0.016	 0.638	 686	 686	 686	 0.0	 0.0	 1	 -30.0	 30.0;
	47	 69	 0.0844	 0.2778	 0.07092	 102	 102	 102	 0.0	 0.0	 1	 -30.0	 30.0;
	49	 69	 0.0985	 0.324	 0.0828	 87	 87	 87	 0.0	 0.0	 1	 -30.0	 30.0;
	68	 69	 0.0	 0.037	 0.0	 793	 793	 793	 0.935	 0.0	 1	 -30.0	 30.0;
	69	 70	 0.03	 0.127	 0.122	 170	 170	 170	 0.0	 0.0	 1	 -30.0	 30.0;
	24	 70	 0.00221	 0.4115	 0.10198	 72	 72	 72	 0.0	 0.0	 1	 -30.0	 30.0;
	70	 71	 0.00882	 0.0355	 0.00878	 166	 166	 166	 0.0	 0.0	 1	 -30.0	 30.0;
	24	 72	 0.0488	 0.196	 0.0488	 146	 146	 146	 0.0	 0.0	 1	 -30.0	 30.0;
	71	 72	 0.0446	 0.18	 0.04444	 159	 159	 159	 0.0	 0.0	 1	 -30.0	 30.0;
	71	 73	 0.00866	 0.0454	 0.01178	 188	 188	 188	 0.0	 0.0	 1	 -30.0	 30.0;
	70	 74	 0.0401	 0.1323	 0.03368	 151	 151	 151	 0.0	 0.0	 1	 -30.0	 30.0;
	70	 75	 0.0428	 0.141	 0.036	 151	 151	 151	 0.0	 0.0	 1	 -30.0	 30.0;
	69	 75	 0.0405	 0.122	 0.124	 145	 145	 145	 0.0	 0.0	 1	 -30.0	 30.0;
	74	 75	 0.0123	 0.0406	 0.01034	 151	 151	 151	 0.0	 0.0	 1	 -30.0	 30.0;
	76	 77	 0.0444	 0.148	 0.0368	 152	 152	 152	 0.0	 0.0	 1	 -30.0	 30.0;
	69	 77	 0.0309	 0.101	 0.1038	 150	 150	 150	 0.0	 0.0	 1	 -30.0	 30.0;
	75	 77	 0.0601	 0.1999	 0.04978	 141	 141	 141	 0.0	 0.0	 1	 -30.0	 30.0;
	77	 78	 0.00376	 0.0124	 0.01264	 151	 151	 151	 0.0	 0.0	 1	 -30.0	 30.0;
	78	 79	 0.00546	 0.0244	 0.00648	 174	 174	 174	 0.0	 0.0	 1	 -30.0	 30.0;
	77	 80	 0.017	 0.0485	 0.0472	 141	 141	 141	 0.0	 0.0	 1	 -30.0	 30.0;
	77	 80	 0.0294	 0.105	 0.0228	 157	 157	 157	 0.0	 0.0	 1	 -30.0	 30.0;
	79	 80	 0.0156	 0.0704	 0.0187	 175	 175	 175	 0.0	 0.0	 1	 -30.0	 30.0;
	68	 81	 0.00175	 0.0202	 0.808	 684	 684	 684	 0.0	 0.0	 1	 -30.0	 30.0;
	81	 80	 0.0	 0.037	 0.0	 793	 793	 793	 0.935	 0.0	 1	 -30.0	 30.0;
	77	 82	 0.0298	 0.0853	 0.08174	 141	 141	 141	 0.0	 0.0	 1	 -30.0	 30.0;
	82	 83	 0.0112	 0.03665	 0.03796	 150	 150	 150	 0.0	 0.0	 1	 -30.0	 30.0;
	83	 84	 0.0625	 0.132	 0.0258	 122	 122	 122	 0.0	 0.0	 1	 -30.0	 30.0;
	83	 85	 0.043	 0.148	 0.0348	 154	 154	 154	 0.0	 0.0	 1	 -30.0	 30.0;
	84	 85	 0.0302	 0.0641	 0.01234	 122	 122	 122	 0.0	 0.0	 1	 -30.0	 30.0;
	85	 86	 0.035	 0.123	 0.0276	 156	 156	 156	 0.0	 0.0	 1	 -30.0	 30.0;
	86	 87	 0.02828	 0.2074	 0.0445	 141	 141	 141	 0.0	 0.0	 1	 -30.0	 30.0;
	85	 88	 0.02	 0.102	 0.0276	 186	 186	 186	 0.0	 0.0	 1	 -30.0	 30.0;
	85	 89	 0.0239	 0.173	 0.047	 168	 168	 168	 0.0	 0.0	 1	 -30.0	 30.0;
	88	 89	 0.0139	 0.0712	 0.01934	 186	 186	 186	 0.0	 0.0	 1	 -30.0	 30.0;
	89	 90	 0.0518	 0.188	 0.0528	 151	 151	 151	 0.0	 0.0	 1	 -30.0	 30.0;
	89	 90	 0.0238	 0.0997	 0.106	 169	 169	 169	 0.0	 0.0	 1	 -30.0	 30.0;
	90	 91	 0.0254	 0.0836	 0.0214	 151	 151	 151	 0.0	 0.0	 1	 -30.0	 30.0;
	89	 92	 0.0099	 0.0505	 0.0548	 186	 186	 186	 0.0	 0.0	 1	 -30.0	 30.0;
	89	 92	 0.0393	 0.1581	 0.0414	 166	 166	 166	 0.0	 0.0	 1	 -30.0	 30.0;
	91	 92	 0.0387	 0.1272	 0.03268	 151	 151	 151	 0.0	 0.0	 1	 -30.0	 30.0;
	92	 93	 0.0258	 0.0848	 0.0218	 151	 151	 151	 0.0	 0.0	 1	 -30.0	 30.0;
	92	 94	 0.0481	 0.158	 0.0406	 151	 151	 151	 0.0	 0.0	 1	 -30.0	 30.0;
	93	 94	 0.0223	 0.0732	 0.01876	 151	 151	 151	 0.0	 0.0	 1	 -30.0	 30.0;
	94	 95	 0.0132	 0.0434	 0.0111	 151	 151	 151	 0.0	 0.0	 1	 -30.0	 30.0;
	80	 96	 0.0356	 0.182	 0.0494	 159	 159	 159	 0.0	 0.0	 1	 -30.0	 30.0;
	82	 96	 0.0162	 0.053	 0.0544	 150	 150	 150	 0.0	 0.0	 1	 -30.0	 30.0;
	94	 96	 0.0269	 0.0869	 0.023	 149	 149	 149	 0.0	 0.0	 1	 -30.0	 30.0;
	80	 97	 0.0183	 0.0934	 0.0254	 186	 186	 186	 0.0	 0.0	 1	 -30.0	 30.0;
	80	 98	 0.0238	 0.108	 0.0286	 176	 176	 176	 0.0	 0.0	 1	 -30.0	 30.0;
	80	 99	 0.0454	 0.206	 0.0546	 140	 140	 140	 0.0	 0.0	 1	 -30.0	 30.0;
	92	 100	 0.0648	 0.295	 0.0472	 98	 98	 98	 0.0	 0.0	 1	 -30.0	 30.0;
	94	 100	 0.0178	 0.058	 0.0604	 150	 150	 150	 0.0	 0.0	 1	 -30.0	 30.0;
	95	 96	 0.0171	 0.0547	 0.01474	 149	 149	 149	 0.0	 0.0	 1	 -30.0	 30.0;
	96	 97	 0.0173	 0.0885	 0.024	 186	 186	 186	 0.0	 0.0	 1	 -30.0	 30.0;
	98	 100	 0.0397	 0.179	 0.0476	 160	 160	 160	 0.0	 0.0	 1	 -30.0	 30.0;
	99	 100	 0.018	 0.0813	 0.0216	 175	 175	 175	 0.0	 0.0	 1	 -30.0	 30.0;
	100	 101	 0.0277	 0.1262	 0.0328	 176	 176	 176	 0.0	 0.0	 1	 -30.0	 30.0;
	92	 102	 0.0123	 0.0559	 0.01464	 176	 176	 176	 0.0	 0.0	 1	 -30.0	 30.0;
	101	 102	 0.0246	 0.112	 0.0294	 176	 176	 176	 0.0	 0.0	 1	 -30.0	 30.0;
	100	 103	 0.016	 0.0525	 0.0536	 151	 151	 151	 0.0	 0.0	 1	 -30.0	 30.0;
	100	 104	 0.0451	 0.204	 0.0541	 141	 141	 141	 0.0	 0.0	 1	 -30.0	 30.0;
	103	 104	 0.0466	 0.1584	 0.0407	 153	 153	 153	 0.0	 0.0	 1	 -30.0	 30.0;
	103	 105	 0.0535	 0.1625	 0.0408	 145	 145	 145	 0.0	 0.0	 1	 -30.0	 30.0;
	100	 106	 0.0605	 0.229	 0.062	 124	 124	 124	 0.0	 0.0	 1	 -30.0	 30.0;
	104	 105	 0.00994	 0.0378	 0.00986	 161	 161	 161	 0.0	 0.0	 1	 -30.0	 30.0;
	105	 106	 0.014	 0.0547	 0.01434	 164	 164	 164	 0.0	 0.0	 1	 -30.0	 30.0;
	105	 107	 0.053	 0.183	 0.0472	 154	 154	 154	 0.0	 0.0	 1	 -30.0	 30.0;
	105	 108	 0.0261	 0.0703	 0.01844	 137	 137	 137	 0.0	 0.0	 1	 -30.0	 30.0;
	106	 107	 0.053	 0.183	 0.0472	 154	 154	 154	 0.0	 0.0	 1	 -30.0	 30.0;
	108	 109	 0.0105	 0.0288	 0.0076	 138	 138	 138	 0.0	 0.0	 1	 -30.0	 30.0;
	103	 110	 0.03906	 0.1813	 0.0461	 159	 159	 159	 0.0	 0.0	 1	 -30.0	 30.0;
	109	 110	 0.0278	 0.0762	 0.0202	 138	 138	 138	 0.0	 0.0	 1	 -30.0	 30.0;
	110	 111	 0.022	 0.0755	 0.02	 154	 154	 154	 0.0	 0.0	 1	 -30.0	 30.0;
	110	 112	 0.0247	 0.064	 0.062	 135	 135	 135	 0.0	 0.0	 1	 -30.0	 30.0;
	17	 113	 0.00913	 0.0301	 0.00768	 151	 151	 151	 0.0	 0.0	 1	 -30.0	 30.0;
	32	 113	 0.0615	 0.203	 0.0518	 139	 139	 139	 0.0	 0.0	 1	 -30.0	 30.0;
	32	 114	 0.0135	 0.0612	 0.01628	 176	 176	 176	 0.0	 0.0	 1	 -30.0	 30.0;
	27	 115	 0.0164	 0.0741	 0.01972	 175	 175	 175	 0.0	 0.0	 1	 -30.0	 30.0;
	114	 115	 0.0023	 0.0104	 0.00276	 175	 175	 175	 0.0	 0.0	 1	 -30.0	 30.0;
	68	 116	 0.00034	 0.00405	 0.164	 7218	 7218	 7218	 0.0	 0.0	 1	 -30.0	 30.0;
	12	 117	 0.0329	 0.14	 0.0358	 170	 170	 170	 0.0	 0.0	 1	 -30.0	 30.0;
	75	 118	 0.0145	 0.0481	 0.01198	 151	 151	 151	 0.0	 0.0	 1	 -30.0	 30.0;
	76	 118	 0.0164	 0.0544	 0.01356	 151	 151	 151	 0.0	 0.0	 1	 -30.0	 30.0;
];

%column_names%  g_shunt shiftable shift_fr shift_to shift_fr_max shift_fr_min shift_to_max shift_to_min tappable tap_fr tap_to tap_fr_max tap_fr_min tap_to_max tap_to_min
mpc.branch_variable_transformer = [
0	0	0	0	0	0	0	0	0	1	1	1	1	1	1;
0	0	0	0	0	0	0	0	0	1	1	1	1	1	1;
0	0	0	0	0	0	0	0	0	1	1	1	1	1	1;
0	0	0	0	0	0	0	0	0	1	1	1	1	1	1;
0	0	0	0	0	0	0	0	0	1	1	1	1	1	1;
0	0	0	0	0	0	0	0	0	1	1	1	1	1	1;
0	0	0	0	0	0	0	0	0	1	1	1	1	1	1;
0	0	0	0	30	-30	0	0	0	1	1	1	1	1	1;
0	0	0	0	0	0	0	0	0	1	1	1	1	1	1;
0	0	0	0	0	0	0	0	0	1	1	1	1	1	1;
0	0	0	0	0	0	0	0	0	1	1	1	1	1	1;
0	0	0	0	0	0	0	0	0	1	1	1	1	1	1;
0	0	0	0	0	0	0	0	0	1	1	1	1	1	1;
0	0	0	0	0	0	0	0	0	1	1	1	1	1	1;
0	0	0	0	0	0	0	0	0	1	1	1	1	1	1;
0	0	0	0	0	0	0	0	0	1	1	1	1	1	1;
0	0	0	0	0	0	0	0	0	1	1	1	1	1	1;
0	0	0	0	0	0	0	0	0	1	1	1	1	1	1;
0	0	0	0	0	0	0	0	0	1	1	1	1	1	1;
0	0	0	0	0	0	0	0	0	1	1	1	1	1	1;
0	0	0	0	0	0	0	0	0	1	1	1	1	1	1;
0	0	0	0	0	0	0	0	0	1	1	1	1	1	1;
0	0	0	0	0	0	0	0	0	1	1	1	1	1	1;
0	0	0	0	0	0	0	0	0	1	1	1	1	1	1;
0	0	0	0	0	0	0	0	0	1	1	1	1	1	1;
0	0	0	0	0	0	0	0	0	1	1	1	1	1	1;
0	0	0	0	0	0	0	0	0	1	1	1	1	1	1;
0	0	0	0	0	0	0	0	0	1	1	1	1	1	1;
0	0	0	0	0	0	0	0	0	1	1	1	1	1	1;
0	0	0	0	0	0	0	0	0	1	1	1	1	1	1;
0	0	0	0	0	0	0	0	0	1	1	1	1	1	1;
0	0	0	0	30	-30	0	0	0	1	1	1	1	1	1;
0	0	0	0	0	0	0	0	0	1	1	1	1	1	1;
0	0	0	0	0	0	0	0	0	1	1	1	1	1	1;
0	0	0	0	0	0	0	0	0	1	1	1	1	1	1;
0	0	0	0	30	-30	0	0	0	1	1	1	1	1	1;
0	0	0	0	0	0	0	0	0	1	1	1	1	1	1;
0	0	0	0	0	0	0	0	0	1	1	1	1	1	1;
0	0	0	0	0	0	0	0	0	1	1	1	1	1	1;
0	0	0	0	0	0	0	0	0	1	1	1	1	1	1;
0	0	0	0	0	0	0	0	0	1	1	1	1	1	1;
0	0	0	0	0	0	0	0	0	1	1	1	1	1	1;
0	0	0	0	0	0	0	0	0	1	1	1	1	1	1;
0	0	0	0	0	0	0	0	0	1	1	1	1	1	1;
0	0	0	0	0	0	0	0	0	1	1	1	1	1	1;
0	0	0	0	0	0	0	0	0	1	1	1	1	1	1;
0	0	0	0	0	0	0	0	0	1	1	1	1	1	1;
0	0	0	0	0	0	0	0	0	1	1	1	1	1	1;
0	0	0	0	0	0	0	0	0	1	1	1	1	1	1;
0	0	0	0	0	0	0	0	0	1	1	1	1	1	1;
0	0	0	0	30	-30	0	0	0	1	1	1	1	1	1;
0	0	0	0	0	0	0	0	0	1	1	1	1	1	1;
0	0	0	0	0	0	0	0	0	1	1	1	1	1	1;
0	0	0	0	0	0	0	0	0	1	1	1	1	1	1;
0	0	0	0	0	0	0	0	0	1	1	1	1	1	1;
0	0	0	0	0	0	0	0	0	1	1	1	1	1	1;
0	0	0	0	0	0	0	0	0	1	1	1	1	1	1;
0	0	0	0	0	0	0	0	0	1	1	1	1	1	1;
0	0	0	0	0	0	0	0	0	1	1	1	1	1	1;
0	0	0	0	0	0	0	0	0	1	1	1	1	1	1;
0	0	0	0	0	0	0	0	0	1	1	1	1	1	1;
0	0	0	0	0	0	0	0	0	1	1	1	1	1	1;
0	0	0	0	0	0	0	0	0	1	1	1	1	1	1;
0	0	0	0	0	0	0	0	0	1	1	1	1	1	1;
0	0	0	0	0	0	0	0	0	1	1	1	1	1	1;
0	0	0	0	0	0	0	0	0	1	1	1	1	1	1;
0	0	0	0	0	0	0	0	0	1	1	1	1	1	1;
0	0	0	0	0	0	0	0	0	1	1	1	1	1	1;
0	0	0	0	0	0	0	0	0	1	1	1	1	1	1;
0	0	0	0	0	0	0	0	0	1	1	1	1	1	1;
0	0	0	0	0	0	0	0	0	1	1	1	1	1	1;
0	0	0	0	0	0	0	0	0	1	1	1	1	1	1;
0	0	0	0	0	0	0	0	0	1	1	1	1	1	1;
0	0	0	0	0	0	0	0	0	1	1	1	1	1	1;
0	0	0	0	0	0	0	0	0	1	1	1	1	1	1;
0	0	0	0	0	0	0	0	0	1	1	1	1	1	1;
0	0	0	0	0	0	0	0	0	1	1	1	1	1	1;
0	0	0	0	0	0	0	0	0	1	1	1	1	1	1;
0	0	0	0	0	0	0	0	0	1	1	1	1	1	1;
0	0	0	0	0	0	0	0	0	1	1	1	1	1	1;
0	0	0	0	0	0	0	0	0	1	1	1	1	1	1;
0	0	0	0	0	0	0	0	0	1	1	1	1	1	1;
0	0	0	0	0	0	0	0	0	1	1	1	1	1	1;
0	0	0	0	0	0	0	0	0	1	1	1	1	1	1;
0	0	0	0	0	0	0	0	0	1	1	1	1	1	1;
0	0	0	0	0	0	0	0	0	1	1	1	1	1	1;
0	0	0	0	0	0	0	0	0	1	1	1	1	1	1;
0	0	0	0	0	0	0	0	0	1	1	1	1	1	1;
0	0	0	0	0	0	0	0	0	1	1	1	1	1	1;
0	0	0	0	0	0	0	0	0	1	1	1	1	1	1;
0	0	0	0	0	0	0	0	0	1	1	1	1	1	1;
0	0	0	0	0	0	0	0	0	1	1	1	1	1	1;
0	0	0	0	30	-30	0	0	0	1	1	1	1	1	1;
0	0	0	0	0	0	0	0	0	1	1	1	1	1	1;
0	0	0	0	30	-30	0	0	0	1	1	1	1	1	1;
0	0	0	0	0	0	0	0	0	1	1	1	1	1	1;
0	0	0	0	0	0	0	0	0	1	1	1	1	1	1;
0	0	0	0	0	0	0	0	0	1	1	1	1	1	1;
0	0	0	0	0	0	0	0	0	1	1	1	1	1	1;
0	0	0	0	0	0	0	0	0	1	1	1	1	1	1;
0	0	0	0	0	0	0	0	0	1	1	1	1	1	1;
0	0	0	0	30	-30	0	0	0	1	1	1	1	1	1;
0	0	0	0	0	0	0	0	0	1	1	1	1	1	1;
0	0	0	0	0	0	0	0	0	1	1	1	1	1	1;
0	0	0	0	0	0	0	0	0	1	1	1	1	1	1;
0	0	0	0	0	0	0	0	0	1	1	1	1	1	1;
0	0	0	0	30	-30	0	0	0	1	1	1	1	1	1;
0	0	0	0	0	0	0	0	0	1	1	1	1	1	1;
0	0	0	0	0	0	0	0	0	1	1	1	1	1	1;
0	0	0	0	0	0	0	0	0	1	1	1	1	1	1;
0	0	0	0	0	0	0	0	0	1	1	1	1	1	1;
0	0	0	0	0	0	0	0	0	1	1	1	1	1	1;
0	0	0	0	0	0	0	0	0	1	1	1	1	1	1;
0	0	0	0	0	0	0	0	0	1	1	1	1	1	1;
0	0	0	0	0	0	0	0	0	1	1	1	1	1	1;
0	0	0	0	0	0	0	0	0	1	1	1	1	1	1;
0	0	0	0	0	0	0	0	0	1	1	1	1	1	1;
0	0	0	0	0	0	0	0	0	1	1	1	1	1	1;
0	0	0	0	0	0	0	0	0	1	1	1	1	1	1;
0	0	0	0	0	0	0	0	0	1	1	1	1	1	1;
0	0	0	0	0	0	0	0	0	1	1	1	1	1	1;
0	0	0	0	0	0	0	0	0	1	1	1	1	1	1;
0	0	0	0	0	0	0	0	0	1	1	1	1	1	1;
0	0	0	0	0	0	0	0	0	1	1	1	1	1	1;
0	0	0	0	0	0	0	0	0	1	1	1	1	1	1;
0	0	0	0	0	0	0	0	0	1	1	1	1	1	1;
0	0	0	0	30	-30	0	0	0	1	1	1	1	1	1;
0	0	0	0	0	0	0	0	0	1	1	1	1	1	1;
0	0	0	0	0	0	0	0	0	1	1	1	1	1	1;
0	0	0	0	0	0	0	0	0	1	1	1	1	1	1;
0	0	0	0	0	0	0	0	0	1	1	1	1	1	1;
0	0	0	0	0	0	0	0	0	1	1	1	1	1	1;
0	0	0	0	0	0	0	0	0	1	1	1	1	1	1;
0	0	0	0	0	0	0	0	0	1	1	1	1	1	1;
0	0	0	0	0	0	0	0	0	1	1	1	1	1	1;
0	0	0	0	0	0	0	0	0	1	1	1	1	1	1;
0	0	0	0	0	0	0	0	0	1	1	1	1	1	1;
0	0	0	0	0	0	0	0	0	1	1	1	1	1	1;
0	0	0	0	0	0	0	0	0	1	1	1	1	1	1;
0	0	0	0	0	0	0	0	0	1	1	1	1	1	1;
0	0	0	0	0	0	0	0	0	1	1	1	1	1	1;
0	0	0	0	0	0	0	0	0	1	1	1	1	1	1;
0	0	0	0	0	0	0	0	0	1	1	1	1	1	1;
0	0	0	0	0	0	0	0	0	1	1	1	1	1	1;
0	0	0	0	0	0	0	0	0	1	1	1	1	1	1;
0	0	0	0	0	0	0	0	0	1	1	1	1	1	1;
0	0	0	0	0	0	0	0	0	1	1	1	1	1	1;
0	0	0	0	0	0	0	0	0	1	1	1	1	1	1;
0	0	0	0	0	0	0	0	0	1	1	1	1	1	1;
0	0	0	0	0	0	0	0	0	1	1	1	1	1	1;
0	0	0	0	0	0	0	0	0	1	1	1	1	1	1;
0	0	0	0	0	0	0	0	0	1	1	1	1	1	1;
0	0	0	0	0	0	0	0	0	1	1	1	1	1	1;
0	0	0	0	0	0	0	0	0	1	1	1	1	1	1;
0	0	0	0	0	0	0	0	0	1	1	1	1	1	1;
0	0	0	0	0	0	0	0	0	1	1	1	1	1	1;
0	0	0	0	0	0	0	0	0	1	1	1	1	1	1;
0	0	0	0	0	0	0	0	0	1	1	1	1	1	1;
0	0	0	0	0	0	0	0	0	1	1	1	1	1	1;
0	0	0	0	0	0	0	0	0	1	1	1	1	1	1;
0	0	0	0	0	0	0	0	0	1	1	1	1	1	1;
0	0	0	0	0	0	0	0	0	1	1	1	1	1	1;
0	0	0	0	0	0	0	0	0	1	1	1	1	1	1;
0	0	0	0	0	0	0	0	0	1	1	1	1	1	1;
0	0	0	0	0	0	0	0	0	1	1	1	1	1	1;
0	0	0	0	0	0	0	0	0	1	1	1	1	1	1;
0	0	0	0	0	0	0	0	0	1	1	1	1	1	1;
0	0	0	0	0	0	0	0	0	1	1	1	1	1	1;
0	0	0	0	0	0	0	0	0	1	1	1	1	1	1;
0	0	0	0	0	0	0	0	0	1	1	1	1	1	1;
0	0	0	0	0	0	0	0	0	1	1	1	1	1	1;
0	0	0	0	0	0	0	0	0	1	1	1	1	1	1;
0	0	0	0	0	0	0	0	0	1	1	1	1	1	1;
0	0	0	0	0	0	0	0	0	1	1	1	1	1	1;
0	0	0	0	0	0	0	0	0	1	1	1	1	1	1;
0	0	0	0	0	0	0	0	0	1	1	1	1	1	1;
0	0	0	0	0	0	0	0	0	1	1	1	1	1	1;
0	0	0	0	0	0	0	0	0	1	1	1	1	1	1;
0	0	0	0	0	0	0	0	0	1	1	1	1	1	1;
0	0	0	0	0	0	0	0	0	1	1	1	1	1	1;
0	0	0	0	0	0	0	0	0	1	1	1	1	1	1;
0	0	0	0	0	0	0	0	0	1	1	1	1	1	1;
0	0	0	0	0	0	0	0	0	1	1	1	1	1	1;
0	0	0	0	0	0	0	0	0	1	1	1	1	1	1;
0	0	0	0	0	0	0	0	0	1	1	1	1	1	1;
0	0	0	0	0	0	0	0	0	1	1	1	1	1	1;
];

%column_names% prob branch_id1 branch_id2 branch_id3 gen_id1 gen_id2 gen_id3
mpc.contingencies = [
    0.980000000000000	0	0	0	0	0	0;
    0.000107526881720430	1	0	0	0	0	0;
    0.000107526881720430	2	0	0	0	0	0;
    0.000107526881720430	3	0	0	0	0	0;
    0.000107526881720430	4	0	0	0	0	0;
    0.000107526881720430	5	0	0	0	0	0;
    0.000107526881720430	6	0	0	0	0	0;
    0.000107526881720430	7	0	0	0	0	0;
    0.000107526881720430	8	0	0	0	0	0;
    0.000107526881720430	9	0	0	0	0	0;
    0.000107526881720430	10	0	0	0	0	0;
    0.000107526881720430	11	0	0	0	0	0;
    0.000107526881720430	12	0	0	0	0	0;
    0.000107526881720430	13	0	0	0	0	0;
    0.000107526881720430	14	0	0	0	0	0;
    0.000107526881720430	15	0	0	0	0	0;
    0.000107526881720430	16	0	0	0	0	0;
    0.000107526881720430	17	0	0	0	0	0;
    0.000107526881720430	18	0	0	0	0	0;
    0.000107526881720430	19	0	0	0	0	0;
    0.000107526881720430	20	0	0	0	0	0;
    0.000107526881720430	21	0	0	0	0	0;
    0.000107526881720430	22	0	0	0	0	0;
    0.000107526881720430	23	0	0	0	0	0;
    0.000107526881720430	24	0	0	0	0	0;
    0.000107526881720430	25	0	0	0	0	0;
    0.000107526881720430	26	0	0	0	0	0;
    0.000107526881720430	27	0	0	0	0	0;
    0.000107526881720430	28	0	0	0	0	0;
    0.000107526881720430	29	0	0	0	0	0;
    0.000107526881720430	30	0	0	0	0	0;
    0.000107526881720430	31	0	0	0	0	0;
    0.000107526881720430	32	0	0	0	0	0;
    0.000107526881720430	33	0	0	0	0	0;
    0.000107526881720430	34	0	0	0	0	0;
    0.000107526881720430	35	0	0	0	0	0;
    0.000107526881720430	36	0	0	0	0	0;
    0.000107526881720430	37	0	0	0	0	0;
    0.000107526881720430	38	0	0	0	0	0;
    0.000107526881720430	39	0	0	0	0	0;
    0.000107526881720430	40	0	0	0	0	0;
    0.000107526881720430	41	0	0	0	0	0;
    0.000107526881720430	42	0	0	0	0	0;
    0.000107526881720430	43	0	0	0	0	0;
    0.000107526881720430	44	0	0	0	0	0;
    0.000107526881720430	45	0	0	0	0	0;
    0.000107526881720430	46	0	0	0	0	0;
    0.000107526881720430	47	0	0	0	0	0;
    0.000107526881720430	48	0	0	0	0	0;
    0.000107526881720430	49	0	0	0	0	0;
    0.000107526881720430	50	0	0	0	0	0;
    0.000107526881720430	51	0	0	0	0	0;
    0.000107526881720430	52	0	0	0	0	0;
    0.000107526881720430	53	0	0	0	0	0;
    0.000107526881720430	54	0	0	0	0	0;
    0.000107526881720430	55	0	0	0	0	0;
    0.000107526881720430	56	0	0	0	0	0;
    0.000107526881720430	57	0	0	0	0	0;
    0.000107526881720430	58	0	0	0	0	0;
    0.000107526881720430	59	0	0	0	0	0;
    0.000107526881720430	60	0	0	0	0	0;
    0.000107526881720430	61	0	0	0	0	0;
    0.000107526881720430	62	0	0	0	0	0;
    0.000107526881720430	63	0	0	0	0	0;
    0.000107526881720430	64	0	0	0	0	0;
    0.000107526881720430	65	0	0	0	0	0;
    0.000107526881720430	66	0	0	0	0	0;
    0.000107526881720430	67	0	0	0	0	0;
    0.000107526881720430	68	0	0	0	0	0;
    0.000107526881720430	69	0	0	0	0	0;
    0.000107526881720430	70	0	0	0	0	0;
    0.000107526881720430	71	0	0	0	0	0;
    0.000107526881720430	72	0	0	0	0	0;
    0.000107526881720430	73	0	0	0	0	0;
    0.000107526881720430	74	0	0	0	0	0;
    0.000107526881720430	75	0	0	0	0	0;
    0.000107526881720430	76	0	0	0	0	0;
    0.000107526881720430	77	0	0	0	0	0;
    0.000107526881720430	78	0	0	0	0	0;
    0.000107526881720430	79	0	0	0	0	0;
    0.000107526881720430	80	0	0	0	0	0;
    0.000107526881720430	81	0	0	0	0	0;
    0.000107526881720430	82	0	0	0	0	0;
    0.000107526881720430	83	0	0	0	0	0;
    0.000107526881720430	84	0	0	0	0	0;
    0.000107526881720430	85	0	0	0	0	0;
    0.000107526881720430	86	0	0	0	0	0;
    0.000107526881720430	87	0	0	0	0	0;
    0.000107526881720430	88	0	0	0	0	0;
    0.000107526881720430	89	0	0	0	0	0;
    0.000107526881720430	90	0	0	0	0	0;
    0.000107526881720430	91	0	0	0	0	0;
    0.000107526881720430	92	0	0	0	0	0;
    0.000107526881720430	93	0	0	0	0	0;
    0.000107526881720430	94	0	0	0	0	0;
    0.000107526881720430	95	0	0	0	0	0;
    0.000107526881720430	96	0	0	0	0	0;
    0.000107526881720430	97	0	0	0	0	0;
    0.000107526881720430	98	0	0	0	0	0;
    0.000107526881720430	99	0	0	0	0	0;
    0.000107526881720430	100	0	0	0	0	0;
    0.000107526881720430	101	0	0	0	0	0;
    0.000107526881720430	102	0	0	0	0	0;
    0.000107526881720430	103	0	0	0	0	0;
    0.000107526881720430	104	0	0	0	0	0;
    0.000107526881720430	105	0	0	0	0	0;
    0.000107526881720430	106	0	0	0	0	0;
    0.000107526881720430	107	0	0	0	0	0;
    0.000107526881720430	108	0	0	0	0	0;
    0.000107526881720430	109	0	0	0	0	0;
    0.000107526881720430	110	0	0	0	0	0;
    0.000107526881720430	111	0	0	0	0	0;
    0.000107526881720430	112	0	0	0	0	0;
    0.000107526881720430	114	0	0	0	0	0;
    0.000107526881720430	115	0	0	0	0	0;
    0.000107526881720430	116	0	0	0	0	0;
    0.000107526881720430	117	0	0	0	0	0;
    0.000107526881720430	118	0	0	0	0	0;
    0.000107526881720430	119	0	0	0	0	0;
    0.000107526881720430	120	0	0	0	0	0;
    0.000107526881720430	121	0	0	0	0	0;
    0.000107526881720430	122	0	0	0	0	0;
    0.000107526881720430	123	0	0	0	0	0;
    0.000107526881720430	124	0	0	0	0	0;
    0.000107526881720430	125	0	0	0	0	0;
    0.000107526881720430	126	0	0	0	0	0;
    0.000107526881720430	127	0	0	0	0	0;
    0.000107526881720430	128	0	0	0	0	0;
    0.000107526881720430	129	0	0	0	0	0;
    0.000107526881720430	130	0	0	0	0	0;
    0.000107526881720430	131	0	0	0	0	0;
    0.000107526881720430	132	0	0	0	0	0;
    0.000107526881720430	134	0	0	0	0	0;
    0.000107526881720430	135	0	0	0	0	0;
    0.000107526881720430	136	0	0	0	0	0;
    0.000107526881720430	137	0	0	0	0	0;
    0.000107526881720430	138	0	0	0	0	0;
    0.000107526881720430	139	0	0	0	0	0;
    0.000107526881720430	140	0	0	0	0	0;
    0.000107526881720430	141	0	0	0	0	0;
    0.000107526881720430	142	0	0	0	0	0;
    0.000107526881720430	143	0	0	0	0	0;
    0.000107526881720430	144	0	0	0	0	0;
    0.000107526881720430	145	0	0	0	0	0;
    0.000107526881720430	146	0	0	0	0	0;
    0.000107526881720430	147	0	0	0	0	0;
    0.000107526881720430	148	0	0	0	0	0;
    0.000107526881720430	149	0	0	0	0	0;
    0.000107526881720430	150	0	0	0	0	0;
    0.000107526881720430	151	0	0	0	0	0;
    0.000107526881720430	152	0	0	0	0	0;
    0.000107526881720430	153	0	0	0	0	0;
    0.000107526881720430	154	0	0	0	0	0;
    0.000107526881720430	155	0	0	0	0	0;
    0.000107526881720430	156	0	0	0	0	0;
    0.000107526881720430	157	0	0	0	0	0;
    0.000107526881720430	158	0	0	0	0	0;
    0.000107526881720430	159	0	0	0	0	0;
    0.000107526881720430	160	0	0	0	0	0;
    0.000107526881720430	161	0	0	0	0	0;
    0.000107526881720430	162	0	0	0	0	0;
    0.000107526881720430	163	0	0	0	0	0;
    0.000107526881720430	164	0	0	0	0	0;
    0.000107526881720430	165	0	0	0	0	0;
    0.000107526881720430	166	0	0	0	0	0;
    0.000107526881720430	167	0	0	0	0	0;
    0.000107526881720430	168	0	0	0	0	0;
    0.000107526881720430	169	0	0	0	0	0;
    0.000107526881720430	170	0	0	0	0	0;
    0.000107526881720430	171	0	0	0	0	0;
    0.000107526881720430	172	0	0	0	0	0;
    0.000107526881720430	173	0	0	0	0	0;
    0.000107526881720430	174	0	0	0	0	0;
    0.000107526881720430	175	0	0	0	0	0;
    0.000107526881720430	176	0	0	0	0	0;
    0.000107526881720430	178	0	0	0	0	0;
    0.000107526881720430	179	0	0	0	0	0;
    0.000107526881720430	180	0	0	0	0	0;
    0.000107526881720430	181	0	0	0	0	0;
    0.000107526881720430	182	0	0	0	0	0;
    0.000107526881720430	185	0	0	0	0	0;
    0.000107526881720430	186	0	0	0	0	0;
 ];

%     0.000107526881720430	113	0	0	0	0	0;
%     0.000107526881720430	133	0	0	0	0	0;
%     0.000107526881720430	177	0	0	0	0	0;
%     0.000107526881720430	183	0	0	0	0	0;
%     0.000107526881720430	184	0	0	0	0	0;
% mpc.contingencies = [
%     0.98 0 0 0 0 0 0;
%     0.005 2 0 0 0 0 0;
%     0.005 0 0 0 1 0 0;
%     0.0025 1 0 0 1 0 0;
%     0.0025 3 0 0 1 0 0;
%  ];
